*SPEF "ieee 1481-1999"
*DESIGN "adder"
*DATE "13:27:03 Sunday September 14, 2025"
*VENDOR "The OpenROAD Project"
*PROGRAM "OpenROAD"
*VERSION "v2.0-24351-gb4b32b99aa"
*DESIGN_FLOW "NAME_SCOPE LOCAL" "PIN_CAP NONE"
*DIVIDER /
*DELIMITER :
*BUS_DELIMITER []
*T_UNIT 1 NS
*C_UNIT 1 PF
*R_UNIT 1 OHM
*L_UNIT 1 HENRY

*NAME_MAP
*1 _00_
*2 _01_
*3 _02_
*4 _03_
*5 _04_
*6 _05_
*7 _06_
*8 _07_
*9 _08_
*10 _09_
*11 _10_
*12 _11_
*13 _12_
*14 _13_
*15 _14_
*16 _15_
*17 a[0]
*18 a[1]
*19 a[2]
*20 a[3]
*21 b[0]
*22 b[1]
*23 b[2]
*24 b[3]
*25 clk
*26 rst_n
*27 net10
*28 net11
*29 net12
*30 net13
*31 net14
*34 net1
*35 net2
*36 net3
*37 net4
*38 net5
*39 net6
*40 net7
*41 net8
*42 net9
*43 sum[0]
*44 sum[1]
*45 sum[2]
*46 sum[3]
*47 sum[4]
*48 net18
*49 clknet_0_clk
*50 net17
*51 clknet_1_0__leaf_clk
*52 clknet_1_1__leaf_clk
*53 net19
*54 _16_
*55 _17_
*56 _18_
*57 _19_
*58 _20_
*59 _21_
*60 _22_
*61 _23_
*62 _24_
*63 _25_
*64 _26_
*65 sum\[0\]\$_DFF_PN0_
*66 sum\[1\]\$_DFF_PN0_
*67 sum\[2\]\$_DFF_PN0_
*68 sum\[3\]\$_DFF_PN0_
*69 sum\[4\]\$_DFF_PN0_
*70 TAP_TAPCELL_ROW_0_0
*71 TAP_TAPCELL_ROW_0_1
*72 TAP_TAPCELL_ROW_0_2
*73 TAP_TAPCELL_ROW_0_3
*74 TAP_TAPCELL_ROW_0_4
*75 TAP_TAPCELL_ROW_0_5
*76 TAP_TAPCELL_ROW_0_6
*77 TAP_TAPCELL_ROW_1_7
*78 TAP_TAPCELL_ROW_1_8
*79 TAP_TAPCELL_ROW_1_9
*80 TAP_TAPCELL_ROW_2_10
*81 TAP_TAPCELL_ROW_2_11
*82 TAP_TAPCELL_ROW_2_12
*83 TAP_TAPCELL_ROW_2_13
*84 TAP_TAPCELL_ROW_3_14
*85 TAP_TAPCELL_ROW_3_15
*86 TAP_TAPCELL_ROW_3_16
*87 TAP_TAPCELL_ROW_4_17
*88 TAP_TAPCELL_ROW_4_18
*89 TAP_TAPCELL_ROW_4_19
*90 TAP_TAPCELL_ROW_4_20
*91 TAP_TAPCELL_ROW_5_21
*92 TAP_TAPCELL_ROW_5_22
*93 TAP_TAPCELL_ROW_5_23
*94 TAP_TAPCELL_ROW_6_24
*95 TAP_TAPCELL_ROW_6_25
*96 TAP_TAPCELL_ROW_6_26
*97 TAP_TAPCELL_ROW_6_27
*98 TAP_TAPCELL_ROW_7_28
*99 TAP_TAPCELL_ROW_7_29
*100 TAP_TAPCELL_ROW_7_30
*101 TAP_TAPCELL_ROW_8_31
*102 TAP_TAPCELL_ROW_8_32
*103 TAP_TAPCELL_ROW_8_33
*104 TAP_TAPCELL_ROW_8_34
*105 TAP_TAPCELL_ROW_9_35
*106 TAP_TAPCELL_ROW_9_36
*107 TAP_TAPCELL_ROW_9_37
*108 TAP_TAPCELL_ROW_10_38
*109 TAP_TAPCELL_ROW_10_39
*110 TAP_TAPCELL_ROW_10_40
*111 TAP_TAPCELL_ROW_10_41
*112 TAP_TAPCELL_ROW_11_42
*113 TAP_TAPCELL_ROW_11_43
*114 TAP_TAPCELL_ROW_11_44
*115 TAP_TAPCELL_ROW_12_45
*116 TAP_TAPCELL_ROW_12_46
*117 TAP_TAPCELL_ROW_12_47
*118 TAP_TAPCELL_ROW_12_48
*119 TAP_TAPCELL_ROW_13_49
*120 TAP_TAPCELL_ROW_13_50
*121 TAP_TAPCELL_ROW_13_51
*122 TAP_TAPCELL_ROW_14_52
*123 TAP_TAPCELL_ROW_14_53
*124 TAP_TAPCELL_ROW_14_54
*125 TAP_TAPCELL_ROW_14_55
*126 TAP_TAPCELL_ROW_15_56
*127 TAP_TAPCELL_ROW_15_57
*128 TAP_TAPCELL_ROW_15_58
*129 TAP_TAPCELL_ROW_16_59
*130 TAP_TAPCELL_ROW_16_60
*131 TAP_TAPCELL_ROW_16_61
*132 TAP_TAPCELL_ROW_16_62
*133 TAP_TAPCELL_ROW_17_63
*134 TAP_TAPCELL_ROW_17_64
*135 TAP_TAPCELL_ROW_17_65
*136 TAP_TAPCELL_ROW_18_66
*137 TAP_TAPCELL_ROW_18_67
*138 TAP_TAPCELL_ROW_18_68
*139 TAP_TAPCELL_ROW_18_69
*140 TAP_TAPCELL_ROW_19_70
*141 TAP_TAPCELL_ROW_19_71
*142 TAP_TAPCELL_ROW_19_72
*143 TAP_TAPCELL_ROW_20_73
*144 TAP_TAPCELL_ROW_20_74
*145 TAP_TAPCELL_ROW_20_75
*146 TAP_TAPCELL_ROW_20_76
*147 TAP_TAPCELL_ROW_21_77
*148 TAP_TAPCELL_ROW_21_78
*149 TAP_TAPCELL_ROW_21_79
*150 TAP_TAPCELL_ROW_22_80
*151 TAP_TAPCELL_ROW_22_81
*152 TAP_TAPCELL_ROW_22_82
*153 TAP_TAPCELL_ROW_22_83
*154 TAP_TAPCELL_ROW_23_84
*155 TAP_TAPCELL_ROW_23_85
*156 TAP_TAPCELL_ROW_23_86
*157 TAP_TAPCELL_ROW_24_87
*158 TAP_TAPCELL_ROW_24_88
*159 TAP_TAPCELL_ROW_24_89
*160 TAP_TAPCELL_ROW_24_90
*161 TAP_TAPCELL_ROW_25_91
*162 TAP_TAPCELL_ROW_25_92
*163 TAP_TAPCELL_ROW_25_93
*164 TAP_TAPCELL_ROW_26_94
*165 TAP_TAPCELL_ROW_26_95
*166 TAP_TAPCELL_ROW_26_96
*167 TAP_TAPCELL_ROW_26_97
*168 TAP_TAPCELL_ROW_27_98
*169 TAP_TAPCELL_ROW_27_99
*170 TAP_TAPCELL_ROW_27_100
*171 TAP_TAPCELL_ROW_28_101
*172 TAP_TAPCELL_ROW_28_102
*173 TAP_TAPCELL_ROW_28_103
*174 TAP_TAPCELL_ROW_28_104
*175 TAP_TAPCELL_ROW_29_105
*176 TAP_TAPCELL_ROW_29_106
*177 TAP_TAPCELL_ROW_29_107
*178 TAP_TAPCELL_ROW_30_108
*179 TAP_TAPCELL_ROW_30_109
*180 TAP_TAPCELL_ROW_30_110
*181 TAP_TAPCELL_ROW_30_111
*182 TAP_TAPCELL_ROW_31_112
*183 TAP_TAPCELL_ROW_31_113
*184 TAP_TAPCELL_ROW_31_114
*185 TAP_TAPCELL_ROW_32_115
*186 TAP_TAPCELL_ROW_32_116
*187 TAP_TAPCELL_ROW_32_117
*188 TAP_TAPCELL_ROW_32_118
*189 TAP_TAPCELL_ROW_33_119
*190 TAP_TAPCELL_ROW_33_120
*191 TAP_TAPCELL_ROW_33_121
*192 TAP_TAPCELL_ROW_34_122
*193 TAP_TAPCELL_ROW_34_123
*194 TAP_TAPCELL_ROW_34_124
*195 TAP_TAPCELL_ROW_34_125
*196 TAP_TAPCELL_ROW_35_126
*197 TAP_TAPCELL_ROW_35_127
*198 TAP_TAPCELL_ROW_35_128
*199 TAP_TAPCELL_ROW_35_129
*200 TAP_TAPCELL_ROW_35_130
*201 TAP_TAPCELL_ROW_35_131
*202 TAP_TAPCELL_ROW_35_132
*203 input1
*204 input2
*205 input3
*206 input4
*207 input5
*208 input6
*209 input7
*210 input8
*211 input9
*212 output10
*213 output11
*214 output12
*215 output13
*216 output14
*217 place18
*218 clkbuf_0_clk
*219 place17
*220 clkbuf_1_0__f_clk
*221 clkbuf_1_1__f_clk
*222 clkload0
*223 rebuffer19
*224 FILLER_0_0
*225 FILLER_0_8
*226 FILLER_0_16
*227 FILLER_0_24
*228 FILLER_0_28
*229 FILLER_0_31
*230 FILLER_0_39
*231 FILLER_0_47
*232 FILLER_0_55
*233 FILLER_0_59
*234 FILLER_0_61
*235 FILLER_0_65
*236 FILLER_0_84
*237 FILLER_0_88
*238 FILLER_0_91
*239 FILLER_0_107
*240 FILLER_0_111
*241 FILLER_0_121
*242 FILLER_0_129
*243 FILLER_0_137
*244 FILLER_0_145
*245 FILLER_0_149
*246 FILLER_0_151
*247 FILLER_0_159
*248 FILLER_0_167
*249 FILLER_0_175
*250 FILLER_0_179
*251 FILLER_0_181
*252 FILLER_0_189
*253 FILLER_0_197
*254 FILLER_0_205
*255 FILLER_0_209
*256 FILLER_0_211
*257 FILLER_0_215
*258 FILLER_1_0
*259 FILLER_1_8
*260 FILLER_1_16
*261 FILLER_1_24
*262 FILLER_1_32
*263 FILLER_1_40
*264 FILLER_1_48
*265 FILLER_1_56
*266 FILLER_1_61
*267 FILLER_1_127
*268 FILLER_1_135
*269 FILLER_1_143
*270 FILLER_1_151
*271 FILLER_1_159
*272 FILLER_1_167
*273 FILLER_1_175
*274 FILLER_1_179
*275 FILLER_1_181
*276 FILLER_1_189
*277 FILLER_1_197
*278 FILLER_1_205
*279 FILLER_1_213
*280 FILLER_2_0
*281 FILLER_2_8
*282 FILLER_2_16
*283 FILLER_2_24
*284 FILLER_2_28
*285 FILLER_2_31
*286 FILLER_2_39
*287 FILLER_2_47
*288 FILLER_2_55
*289 FILLER_2_63
*290 FILLER_2_65
*291 FILLER_2_91
*292 FILLER_2_93
*293 FILLER_2_120
*294 FILLER_2_128
*295 FILLER_2_136
*296 FILLER_2_144
*297 FILLER_2_148
*298 FILLER_2_151
*299 FILLER_2_159
*300 FILLER_2_167
*301 FILLER_2_175
*302 FILLER_2_183
*303 FILLER_2_191
*304 FILLER_2_199
*305 FILLER_2_207
*306 FILLER_2_209
*307 FILLER_2_211
*308 FILLER_2_215
*309 FILLER_3_0
*310 FILLER_3_8
*311 FILLER_3_16
*312 FILLER_3_24
*313 FILLER_3_32
*314 FILLER_3_40
*315 FILLER_3_48
*316 FILLER_3_56
*317 FILLER_3_61
*318 FILLER_3_69
*319 FILLER_3_77
*320 FILLER_3_79
*321 FILLER_3_93
*322 FILLER_3_105
*323 FILLER_3_113
*324 FILLER_3_121
*325 FILLER_3_129
*326 FILLER_3_137
*327 FILLER_3_145
*328 FILLER_3_153
*329 FILLER_3_161
*330 FILLER_3_169
*331 FILLER_3_177
*332 FILLER_3_179
*333 FILLER_3_181
*334 FILLER_3_189
*335 FILLER_3_197
*336 FILLER_3_205
*337 FILLER_3_213
*338 FILLER_4_0
*339 FILLER_4_8
*340 FILLER_4_16
*341 FILLER_4_24
*342 FILLER_4_28
*343 FILLER_4_31
*344 FILLER_4_39
*345 FILLER_4_47
*346 FILLER_4_55
*347 FILLER_4_63
*348 FILLER_4_78
*349 FILLER_4_86
*350 FILLER_4_91
*351 FILLER_4_113
*352 FILLER_4_120
*353 FILLER_4_128
*354 FILLER_4_136
*355 FILLER_4_144
*356 FILLER_4_148
*357 FILLER_4_151
*358 FILLER_4_159
*359 FILLER_4_167
*360 FILLER_4_175
*361 FILLER_4_183
*362 FILLER_4_191
*363 FILLER_4_199
*364 FILLER_4_207
*365 FILLER_4_209
*366 FILLER_4_211
*367 FILLER_4_215
*368 FILLER_5_0
*369 FILLER_5_8
*370 FILLER_5_16
*371 FILLER_5_24
*372 FILLER_5_32
*373 FILLER_5_40
*374 FILLER_5_48
*375 FILLER_5_56
*376 FILLER_5_61
*377 FILLER_5_75
*378 FILLER_5_83
*379 FILLER_5_91
*380 FILLER_5_118
*381 FILLER_5_121
*382 FILLER_5_129
*383 FILLER_5_137
*384 FILLER_5_145
*385 FILLER_5_153
*386 FILLER_5_161
*387 FILLER_5_169
*388 FILLER_5_177
*389 FILLER_5_179
*390 FILLER_5_181
*391 FILLER_5_189
*392 FILLER_5_197
*393 FILLER_5_205
*394 FILLER_5_213
*395 FILLER_6_0
*396 FILLER_6_8
*397 FILLER_6_16
*398 FILLER_6_24
*399 FILLER_6_28
*400 FILLER_6_51
*401 FILLER_6_55
*402 FILLER_6_63
*403 FILLER_6_67
*404 FILLER_6_75
*405 FILLER_6_83
*406 FILLER_6_87
*407 FILLER_6_89
*408 FILLER_6_91
*409 FILLER_6_112
*410 FILLER_6_120
*411 FILLER_6_128
*412 FILLER_6_136
*413 FILLER_6_144
*414 FILLER_6_148
*415 FILLER_6_151
*416 FILLER_6_159
*417 FILLER_6_167
*418 FILLER_6_175
*419 FILLER_6_183
*420 FILLER_6_191
*421 FILLER_6_199
*422 FILLER_6_207
*423 FILLER_6_209
*424 FILLER_6_211
*425 FILLER_6_215
*426 FILLER_7_0
*427 FILLER_7_8
*428 FILLER_7_16
*429 FILLER_7_24
*430 FILLER_7_32
*431 FILLER_7_40
*432 FILLER_7_48
*433 FILLER_7_56
*434 FILLER_7_61
*435 FILLER_7_69
*436 FILLER_7_77
*437 FILLER_7_85
*438 FILLER_7_93
*439 FILLER_7_101
*440 FILLER_7_109
*441 FILLER_7_117
*442 FILLER_7_119
*443 FILLER_7_121
*444 FILLER_7_129
*445 FILLER_7_137
*446 FILLER_7_145
*447 FILLER_7_153
*448 FILLER_7_161
*449 FILLER_7_169
*450 FILLER_7_177
*451 FILLER_7_179
*452 FILLER_7_181
*453 FILLER_7_189
*454 FILLER_7_197
*455 FILLER_7_205
*456 FILLER_7_213
*457 FILLER_8_0
*458 FILLER_8_8
*459 FILLER_8_16
*460 FILLER_8_24
*461 FILLER_8_28
*462 FILLER_8_31
*463 FILLER_8_39
*464 FILLER_8_47
*465 FILLER_8_55
*466 FILLER_8_63
*467 FILLER_8_71
*468 FILLER_8_79
*469 FILLER_8_87
*470 FILLER_8_89
*471 FILLER_8_91
*472 FILLER_8_99
*473 FILLER_8_107
*474 FILLER_8_115
*475 FILLER_8_123
*476 FILLER_8_131
*477 FILLER_8_139
*478 FILLER_8_147
*479 FILLER_8_149
*480 FILLER_8_151
*481 FILLER_8_159
*482 FILLER_8_167
*483 FILLER_8_175
*484 FILLER_8_183
*485 FILLER_8_191
*486 FILLER_8_199
*487 FILLER_8_207
*488 FILLER_8_209
*489 FILLER_8_211
*490 FILLER_8_215
*491 FILLER_9_0
*492 FILLER_9_8
*493 FILLER_9_16
*494 FILLER_9_24
*495 FILLER_9_32
*496 FILLER_9_40
*497 FILLER_9_48
*498 FILLER_9_56
*499 FILLER_9_61
*500 FILLER_9_69
*501 FILLER_9_77
*502 FILLER_9_85
*503 FILLER_9_89
*504 FILLER_9_102
*505 FILLER_9_110
*506 FILLER_9_118
*507 FILLER_9_121
*508 FILLER_9_129
*509 FILLER_9_137
*510 FILLER_9_145
*511 FILLER_9_153
*512 FILLER_9_161
*513 FILLER_9_169
*514 FILLER_9_177
*515 FILLER_9_179
*516 FILLER_9_181
*517 FILLER_9_189
*518 FILLER_9_197
*519 FILLER_9_205
*520 FILLER_9_213
*521 FILLER_10_0
*522 FILLER_10_8
*523 FILLER_10_16
*524 FILLER_10_24
*525 FILLER_10_28
*526 FILLER_10_31
*527 FILLER_10_39
*528 FILLER_10_47
*529 FILLER_10_55
*530 FILLER_10_63
*531 FILLER_10_71
*532 FILLER_10_79
*533 FILLER_10_87
*534 FILLER_10_89
*535 FILLER_10_91
*536 FILLER_10_99
*537 FILLER_10_107
*538 FILLER_10_115
*539 FILLER_10_123
*540 FILLER_10_131
*541 FILLER_10_139
*542 FILLER_10_147
*543 FILLER_10_149
*544 FILLER_10_151
*545 FILLER_10_159
*546 FILLER_10_167
*547 FILLER_10_175
*548 FILLER_10_183
*549 FILLER_10_191
*550 FILLER_10_199
*551 FILLER_10_207
*552 FILLER_10_209
*553 FILLER_10_211
*554 FILLER_10_215
*555 FILLER_11_0
*556 FILLER_11_8
*557 FILLER_11_17
*558 FILLER_11_25
*559 FILLER_11_33
*560 FILLER_11_41
*561 FILLER_11_49
*562 FILLER_11_57
*563 FILLER_11_59
*564 FILLER_11_61
*565 FILLER_11_69
*566 FILLER_11_77
*567 FILLER_11_85
*568 FILLER_11_93
*569 FILLER_11_101
*570 FILLER_11_109
*571 FILLER_11_117
*572 FILLER_11_119
*573 FILLER_11_121
*574 FILLER_11_129
*575 FILLER_11_137
*576 FILLER_11_145
*577 FILLER_11_153
*578 FILLER_11_161
*579 FILLER_11_169
*580 FILLER_11_177
*581 FILLER_11_179
*582 FILLER_11_181
*583 FILLER_11_189
*584 FILLER_11_197
*585 FILLER_11_205
*586 FILLER_11_213
*587 FILLER_12_0
*588 FILLER_12_8
*589 FILLER_12_16
*590 FILLER_12_24
*591 FILLER_12_28
*592 FILLER_12_31
*593 FILLER_12_39
*594 FILLER_12_47
*595 FILLER_12_55
*596 FILLER_12_63
*597 FILLER_12_71
*598 FILLER_12_79
*599 FILLER_12_87
*600 FILLER_12_89
*601 FILLER_12_91
*602 FILLER_12_99
*603 FILLER_12_107
*604 FILLER_12_115
*605 FILLER_12_123
*606 FILLER_12_131
*607 FILLER_12_139
*608 FILLER_12_147
*609 FILLER_12_149
*610 FILLER_12_151
*611 FILLER_12_159
*612 FILLER_12_167
*613 FILLER_12_175
*614 FILLER_12_183
*615 FILLER_12_191
*616 FILLER_12_199
*617 FILLER_12_207
*618 FILLER_12_209
*619 FILLER_12_211
*620 FILLER_12_215
*621 FILLER_13_0
*622 FILLER_13_8
*623 FILLER_13_16
*624 FILLER_13_24
*625 FILLER_13_32
*626 FILLER_13_40
*627 FILLER_13_48
*628 FILLER_13_56
*629 FILLER_13_61
*630 FILLER_13_69
*631 FILLER_13_77
*632 FILLER_13_85
*633 FILLER_13_93
*634 FILLER_13_101
*635 FILLER_13_109
*636 FILLER_13_117
*637 FILLER_13_119
*638 FILLER_13_121
*639 FILLER_13_129
*640 FILLER_13_137
*641 FILLER_13_145
*642 FILLER_13_153
*643 FILLER_13_161
*644 FILLER_13_169
*645 FILLER_13_177
*646 FILLER_13_179
*647 FILLER_13_181
*648 FILLER_13_189
*649 FILLER_13_197
*650 FILLER_13_205
*651 FILLER_13_213
*652 FILLER_14_0
*653 FILLER_14_8
*654 FILLER_14_16
*655 FILLER_14_24
*656 FILLER_14_28
*657 FILLER_14_31
*658 FILLER_14_39
*659 FILLER_14_47
*660 FILLER_14_55
*661 FILLER_14_63
*662 FILLER_14_71
*663 FILLER_14_79
*664 FILLER_14_87
*665 FILLER_14_89
*666 FILLER_14_91
*667 FILLER_14_99
*668 FILLER_14_107
*669 FILLER_14_115
*670 FILLER_14_123
*671 FILLER_14_131
*672 FILLER_14_139
*673 FILLER_14_147
*674 FILLER_14_149
*675 FILLER_14_151
*676 FILLER_14_159
*677 FILLER_14_167
*678 FILLER_14_175
*679 FILLER_14_183
*680 FILLER_14_191
*681 FILLER_14_199
*682 FILLER_14_207
*683 FILLER_14_209
*684 FILLER_14_211
*685 FILLER_14_215
*686 FILLER_15_0
*687 FILLER_15_8
*688 FILLER_15_16
*689 FILLER_15_25
*690 FILLER_15_33
*691 FILLER_15_41
*692 FILLER_15_49
*693 FILLER_15_57
*694 FILLER_15_59
*695 FILLER_15_61
*696 FILLER_15_69
*697 FILLER_15_77
*698 FILLER_15_85
*699 FILLER_15_93
*700 FILLER_15_101
*701 FILLER_15_109
*702 FILLER_15_117
*703 FILLER_15_119
*704 FILLER_15_121
*705 FILLER_15_129
*706 FILLER_15_137
*707 FILLER_15_145
*708 FILLER_15_153
*709 FILLER_15_161
*710 FILLER_15_169
*711 FILLER_15_177
*712 FILLER_15_179
*713 FILLER_15_181
*714 FILLER_15_189
*715 FILLER_15_197
*716 FILLER_15_205
*717 FILLER_15_213
*718 FILLER_16_0
*719 FILLER_16_8
*720 FILLER_16_16
*721 FILLER_16_24
*722 FILLER_16_28
*723 FILLER_16_31
*724 FILLER_16_39
*725 FILLER_16_47
*726 FILLER_16_55
*727 FILLER_16_63
*728 FILLER_16_71
*729 FILLER_16_79
*730 FILLER_16_87
*731 FILLER_16_89
*732 FILLER_16_91
*733 FILLER_16_99
*734 FILLER_16_107
*735 FILLER_16_115
*736 FILLER_16_123
*737 FILLER_16_131
*738 FILLER_16_139
*739 FILLER_16_147
*740 FILLER_16_149
*741 FILLER_16_151
*742 FILLER_16_159
*743 FILLER_16_167
*744 FILLER_16_175
*745 FILLER_16_183
*746 FILLER_16_191
*747 FILLER_16_199
*748 FILLER_16_207
*749 FILLER_16_209
*750 FILLER_16_211
*751 FILLER_16_215
*752 FILLER_17_0
*753 FILLER_17_4
*754 FILLER_17_14
*755 FILLER_17_22
*756 FILLER_17_30
*757 FILLER_17_39
*758 FILLER_17_47
*759 FILLER_17_55
*760 FILLER_17_59
*761 FILLER_17_61
*762 FILLER_17_69
*763 FILLER_17_77
*764 FILLER_17_85
*765 FILLER_17_93
*766 FILLER_17_101
*767 FILLER_17_109
*768 FILLER_17_117
*769 FILLER_17_119
*770 FILLER_17_121
*771 FILLER_17_129
*772 FILLER_17_137
*773 FILLER_17_145
*774 FILLER_17_153
*775 FILLER_17_161
*776 FILLER_17_169
*777 FILLER_17_177
*778 FILLER_17_179
*779 FILLER_17_181
*780 FILLER_17_189
*781 FILLER_17_197
*782 FILLER_17_205
*783 FILLER_17_213
*784 FILLER_18_0
*785 FILLER_18_8
*786 FILLER_18_16
*787 FILLER_18_24
*788 FILLER_18_28
*789 FILLER_18_31
*790 FILLER_18_39
*791 FILLER_18_47
*792 FILLER_18_55
*793 FILLER_18_63
*794 FILLER_18_71
*795 FILLER_18_79
*796 FILLER_18_87
*797 FILLER_18_89
*798 FILLER_18_91
*799 FILLER_18_99
*800 FILLER_18_107
*801 FILLER_18_115
*802 FILLER_18_123
*803 FILLER_18_131
*804 FILLER_18_139
*805 FILLER_18_147
*806 FILLER_18_149
*807 FILLER_18_151
*808 FILLER_18_159
*809 FILLER_18_167
*810 FILLER_18_175
*811 FILLER_18_183
*812 FILLER_18_191
*813 FILLER_18_199
*814 FILLER_18_207
*815 FILLER_18_209
*816 FILLER_18_211
*817 FILLER_18_215
*818 FILLER_19_0
*819 FILLER_19_8
*820 FILLER_19_16
*821 FILLER_19_24
*822 FILLER_19_32
*823 FILLER_19_40
*824 FILLER_19_48
*825 FILLER_19_56
*826 FILLER_19_61
*827 FILLER_19_69
*828 FILLER_19_77
*829 FILLER_19_85
*830 FILLER_19_93
*831 FILLER_19_101
*832 FILLER_19_109
*833 FILLER_19_117
*834 FILLER_19_119
*835 FILLER_19_121
*836 FILLER_19_129
*837 FILLER_19_137
*838 FILLER_19_145
*839 FILLER_19_153
*840 FILLER_19_161
*841 FILLER_19_169
*842 FILLER_19_177
*843 FILLER_19_179
*844 FILLER_19_181
*845 FILLER_19_189
*846 FILLER_19_197
*847 FILLER_19_205
*848 FILLER_19_213
*849 FILLER_20_0
*850 FILLER_20_8
*851 FILLER_20_16
*852 FILLER_20_24
*853 FILLER_20_28
*854 FILLER_20_31
*855 FILLER_20_39
*856 FILLER_20_47
*857 FILLER_20_55
*858 FILLER_20_63
*859 FILLER_20_71
*860 FILLER_20_79
*861 FILLER_20_87
*862 FILLER_20_89
*863 FILLER_20_91
*864 FILLER_20_99
*865 FILLER_20_107
*866 FILLER_20_115
*867 FILLER_20_123
*868 FILLER_20_131
*869 FILLER_20_139
*870 FILLER_20_147
*871 FILLER_20_149
*872 FILLER_20_151
*873 FILLER_20_159
*874 FILLER_20_167
*875 FILLER_20_175
*876 FILLER_20_183
*877 FILLER_20_191
*878 FILLER_20_199
*879 FILLER_20_207
*880 FILLER_20_209
*881 FILLER_20_211
*882 FILLER_20_215
*883 FILLER_21_0
*884 FILLER_21_8
*885 FILLER_21_16
*886 FILLER_21_24
*887 FILLER_21_32
*888 FILLER_21_40
*889 FILLER_21_48
*890 FILLER_21_56
*891 FILLER_21_61
*892 FILLER_21_69
*893 FILLER_21_77
*894 FILLER_21_85
*895 FILLER_21_93
*896 FILLER_21_101
*897 FILLER_21_109
*898 FILLER_21_117
*899 FILLER_21_119
*900 FILLER_21_121
*901 FILLER_21_129
*902 FILLER_21_137
*903 FILLER_21_145
*904 FILLER_21_153
*905 FILLER_21_161
*906 FILLER_21_169
*907 FILLER_21_177
*908 FILLER_21_179
*909 FILLER_21_181
*910 FILLER_21_189
*911 FILLER_21_197
*912 FILLER_21_205
*913 FILLER_21_213
*914 FILLER_22_0
*915 FILLER_22_8
*916 FILLER_22_16
*917 FILLER_22_24
*918 FILLER_22_28
*919 FILLER_22_31
*920 FILLER_22_39
*921 FILLER_22_47
*922 FILLER_22_55
*923 FILLER_22_63
*924 FILLER_22_71
*925 FILLER_22_79
*926 FILLER_22_87
*927 FILLER_22_89
*928 FILLER_22_91
*929 FILLER_22_99
*930 FILLER_22_107
*931 FILLER_22_115
*932 FILLER_22_123
*933 FILLER_22_131
*934 FILLER_22_139
*935 FILLER_22_147
*936 FILLER_22_149
*937 FILLER_22_151
*938 FILLER_22_159
*939 FILLER_22_167
*940 FILLER_22_175
*941 FILLER_22_183
*942 FILLER_22_191
*943 FILLER_22_199
*944 FILLER_22_207
*945 FILLER_22_209
*946 FILLER_22_211
*947 FILLER_22_215
*948 FILLER_23_0
*949 FILLER_23_8
*950 FILLER_23_16
*951 FILLER_23_24
*952 FILLER_23_32
*953 FILLER_23_40
*954 FILLER_23_48
*955 FILLER_23_56
*956 FILLER_23_61
*957 FILLER_23_69
*958 FILLER_23_77
*959 FILLER_23_85
*960 FILLER_23_93
*961 FILLER_23_101
*962 FILLER_23_109
*963 FILLER_23_117
*964 FILLER_23_119
*965 FILLER_23_121
*966 FILLER_23_129
*967 FILLER_23_137
*968 FILLER_23_145
*969 FILLER_23_153
*970 FILLER_23_161
*971 FILLER_23_169
*972 FILLER_23_177
*973 FILLER_23_179
*974 FILLER_23_181
*975 FILLER_23_189
*976 FILLER_23_197
*977 FILLER_23_205
*978 FILLER_23_213
*979 FILLER_24_0
*980 FILLER_24_8
*981 FILLER_24_16
*982 FILLER_24_24
*983 FILLER_24_28
*984 FILLER_24_31
*985 FILLER_24_39
*986 FILLER_24_47
*987 FILLER_24_55
*988 FILLER_24_63
*989 FILLER_24_71
*990 FILLER_24_79
*991 FILLER_24_87
*992 FILLER_24_89
*993 FILLER_24_91
*994 FILLER_24_99
*995 FILLER_24_107
*996 FILLER_24_115
*997 FILLER_24_123
*998 FILLER_24_131
*999 FILLER_24_139
*1000 FILLER_24_147
*1001 FILLER_24_149
*1002 FILLER_24_151
*1003 FILLER_24_159
*1004 FILLER_24_167
*1005 FILLER_24_175
*1006 FILLER_24_183
*1007 FILLER_24_191
*1008 FILLER_24_199
*1009 FILLER_24_207
*1010 FILLER_24_209
*1011 FILLER_24_211
*1012 FILLER_24_215
*1013 FILLER_25_0
*1014 FILLER_25_8
*1015 FILLER_25_16
*1016 FILLER_25_24
*1017 FILLER_25_32
*1018 FILLER_25_40
*1019 FILLER_25_48
*1020 FILLER_25_56
*1021 FILLER_25_61
*1022 FILLER_25_69
*1023 FILLER_25_77
*1024 FILLER_25_85
*1025 FILLER_25_93
*1026 FILLER_25_101
*1027 FILLER_25_109
*1028 FILLER_25_117
*1029 FILLER_25_119
*1030 FILLER_25_121
*1031 FILLER_25_129
*1032 FILLER_25_137
*1033 FILLER_25_145
*1034 FILLER_25_153
*1035 FILLER_25_161
*1036 FILLER_25_169
*1037 FILLER_25_177
*1038 FILLER_25_179
*1039 FILLER_25_181
*1040 FILLER_25_189
*1041 FILLER_25_197
*1042 FILLER_25_205
*1043 FILLER_25_213
*1044 FILLER_26_0
*1045 FILLER_26_8
*1046 FILLER_26_16
*1047 FILLER_26_24
*1048 FILLER_26_28
*1049 FILLER_26_31
*1050 FILLER_26_39
*1051 FILLER_26_47
*1052 FILLER_26_55
*1053 FILLER_26_63
*1054 FILLER_26_71
*1055 FILLER_26_79
*1056 FILLER_26_87
*1057 FILLER_26_89
*1058 FILLER_26_91
*1059 FILLER_26_99
*1060 FILLER_26_107
*1061 FILLER_26_115
*1062 FILLER_26_123
*1063 FILLER_26_131
*1064 FILLER_26_139
*1065 FILLER_26_147
*1066 FILLER_26_149
*1067 FILLER_26_151
*1068 FILLER_26_159
*1069 FILLER_26_167
*1070 FILLER_26_175
*1071 FILLER_26_183
*1072 FILLER_26_191
*1073 FILLER_26_199
*1074 FILLER_26_207
*1075 FILLER_26_209
*1076 FILLER_26_211
*1077 FILLER_26_215
*1078 FILLER_27_0
*1079 FILLER_27_8
*1080 FILLER_27_16
*1081 FILLER_27_24
*1082 FILLER_27_32
*1083 FILLER_27_40
*1084 FILLER_27_48
*1085 FILLER_27_56
*1086 FILLER_27_61
*1087 FILLER_27_69
*1088 FILLER_27_77
*1089 FILLER_27_85
*1090 FILLER_27_93
*1091 FILLER_27_101
*1092 FILLER_27_109
*1093 FILLER_27_117
*1094 FILLER_27_119
*1095 FILLER_27_121
*1096 FILLER_27_129
*1097 FILLER_27_137
*1098 FILLER_27_145
*1099 FILLER_27_153
*1100 FILLER_27_161
*1101 FILLER_27_169
*1102 FILLER_27_177
*1103 FILLER_27_179
*1104 FILLER_27_181
*1105 FILLER_27_189
*1106 FILLER_27_197
*1107 FILLER_27_205
*1108 FILLER_27_213
*1109 FILLER_28_0
*1110 FILLER_28_8
*1111 FILLER_28_16
*1112 FILLER_28_24
*1113 FILLER_28_28
*1114 FILLER_28_31
*1115 FILLER_28_39
*1116 FILLER_28_47
*1117 FILLER_28_55
*1118 FILLER_28_63
*1119 FILLER_28_71
*1120 FILLER_28_79
*1121 FILLER_28_87
*1122 FILLER_28_89
*1123 FILLER_28_91
*1124 FILLER_28_99
*1125 FILLER_28_107
*1126 FILLER_28_115
*1127 FILLER_28_123
*1128 FILLER_28_131
*1129 FILLER_28_139
*1130 FILLER_28_147
*1131 FILLER_28_149
*1132 FILLER_28_151
*1133 FILLER_28_159
*1134 FILLER_28_167
*1135 FILLER_28_175
*1136 FILLER_28_183
*1137 FILLER_28_191
*1138 FILLER_28_199
*1139 FILLER_28_207
*1140 FILLER_28_209
*1141 FILLER_28_211
*1142 FILLER_28_215
*1143 FILLER_29_0
*1144 FILLER_29_8
*1145 FILLER_29_16
*1146 FILLER_29_24
*1147 FILLER_29_32
*1148 FILLER_29_40
*1149 FILLER_29_48
*1150 FILLER_29_56
*1151 FILLER_29_61
*1152 FILLER_29_69
*1153 FILLER_29_77
*1154 FILLER_29_85
*1155 FILLER_29_93
*1156 FILLER_29_101
*1157 FILLER_29_109
*1158 FILLER_29_117
*1159 FILLER_29_119
*1160 FILLER_29_121
*1161 FILLER_29_129
*1162 FILLER_29_137
*1163 FILLER_29_145
*1164 FILLER_29_153
*1165 FILLER_29_161
*1166 FILLER_29_169
*1167 FILLER_29_177
*1168 FILLER_29_179
*1169 FILLER_29_181
*1170 FILLER_29_189
*1171 FILLER_29_197
*1172 FILLER_29_205
*1173 FILLER_29_213
*1174 FILLER_30_0
*1175 FILLER_30_8
*1176 FILLER_30_16
*1177 FILLER_30_24
*1178 FILLER_30_28
*1179 FILLER_30_31
*1180 FILLER_30_39
*1181 FILLER_30_47
*1182 FILLER_30_55
*1183 FILLER_30_63
*1184 FILLER_30_71
*1185 FILLER_30_79
*1186 FILLER_30_87
*1187 FILLER_30_89
*1188 FILLER_30_91
*1189 FILLER_30_99
*1190 FILLER_30_107
*1191 FILLER_30_115
*1192 FILLER_30_123
*1193 FILLER_30_131
*1194 FILLER_30_139
*1195 FILLER_30_147
*1196 FILLER_30_149
*1197 FILLER_30_151
*1198 FILLER_30_159
*1199 FILLER_30_167
*1200 FILLER_30_175
*1201 FILLER_30_183
*1202 FILLER_30_191
*1203 FILLER_30_199
*1204 FILLER_30_207
*1205 FILLER_30_209
*1206 FILLER_30_211
*1207 FILLER_30_215
*1208 FILLER_31_0
*1209 FILLER_31_8
*1210 FILLER_31_16
*1211 FILLER_31_24
*1212 FILLER_31_32
*1213 FILLER_31_40
*1214 FILLER_31_48
*1215 FILLER_31_56
*1216 FILLER_31_61
*1217 FILLER_31_69
*1218 FILLER_31_77
*1219 FILLER_31_85
*1220 FILLER_31_93
*1221 FILLER_31_101
*1222 FILLER_31_109
*1223 FILLER_31_117
*1224 FILLER_31_119
*1225 FILLER_31_121
*1226 FILLER_31_129
*1227 FILLER_31_137
*1228 FILLER_31_145
*1229 FILLER_31_153
*1230 FILLER_31_161
*1231 FILLER_31_169
*1232 FILLER_31_177
*1233 FILLER_31_179
*1234 FILLER_31_181
*1235 FILLER_31_189
*1236 FILLER_31_197
*1237 FILLER_31_205
*1238 FILLER_31_213
*1239 FILLER_32_0
*1240 FILLER_32_8
*1241 FILLER_32_16
*1242 FILLER_32_24
*1243 FILLER_32_28
*1244 FILLER_32_31
*1245 FILLER_32_39
*1246 FILLER_32_47
*1247 FILLER_32_55
*1248 FILLER_32_63
*1249 FILLER_32_71
*1250 FILLER_32_79
*1251 FILLER_32_87
*1252 FILLER_32_89
*1253 FILLER_32_91
*1254 FILLER_32_99
*1255 FILLER_32_107
*1256 FILLER_32_115
*1257 FILLER_32_123
*1258 FILLER_32_131
*1259 FILLER_32_139
*1260 FILLER_32_147
*1261 FILLER_32_149
*1262 FILLER_32_151
*1263 FILLER_32_159
*1264 FILLER_32_167
*1265 FILLER_32_175
*1266 FILLER_32_183
*1267 FILLER_32_191
*1268 FILLER_32_199
*1269 FILLER_32_207
*1270 FILLER_32_209
*1271 FILLER_32_211
*1272 FILLER_32_215
*1273 FILLER_33_0
*1274 FILLER_33_8
*1275 FILLER_33_16
*1276 FILLER_33_24
*1277 FILLER_33_32
*1278 FILLER_33_40
*1279 FILLER_33_48
*1280 FILLER_33_56
*1281 FILLER_33_61
*1282 FILLER_33_69
*1283 FILLER_33_77
*1284 FILLER_33_85
*1285 FILLER_33_93
*1286 FILLER_33_101
*1287 FILLER_33_109
*1288 FILLER_33_117
*1289 FILLER_33_119
*1290 FILLER_33_121
*1291 FILLER_33_129
*1292 FILLER_33_137
*1293 FILLER_33_145
*1294 FILLER_33_153
*1295 FILLER_33_161
*1296 FILLER_33_169
*1297 FILLER_33_177
*1298 FILLER_33_179
*1299 FILLER_33_181
*1300 FILLER_33_189
*1301 FILLER_33_197
*1302 FILLER_33_205
*1303 FILLER_33_213
*1304 FILLER_34_0
*1305 FILLER_34_8
*1306 FILLER_34_16
*1307 FILLER_34_24
*1308 FILLER_34_28
*1309 FILLER_34_31
*1310 FILLER_34_39
*1311 FILLER_34_47
*1312 FILLER_34_55
*1313 FILLER_34_63
*1314 FILLER_34_71
*1315 FILLER_34_79
*1316 FILLER_34_87
*1317 FILLER_34_89
*1318 FILLER_34_91
*1319 FILLER_34_99
*1320 FILLER_34_107
*1321 FILLER_34_115
*1322 FILLER_34_123
*1323 FILLER_34_131
*1324 FILLER_34_139
*1325 FILLER_34_147
*1326 FILLER_34_149
*1327 FILLER_34_151
*1328 FILLER_34_159
*1329 FILLER_34_167
*1330 FILLER_34_175
*1331 FILLER_34_183
*1332 FILLER_34_191
*1333 FILLER_34_199
*1334 FILLER_34_207
*1335 FILLER_34_209
*1336 FILLER_34_211
*1337 FILLER_34_215
*1338 FILLER_35_0
*1339 FILLER_35_8
*1340 FILLER_35_16
*1341 FILLER_35_24
*1342 FILLER_35_28
*1343 FILLER_35_31
*1344 FILLER_35_39
*1345 FILLER_35_47
*1346 FILLER_35_55
*1347 FILLER_35_59
*1348 FILLER_35_61
*1349 FILLER_35_69
*1350 FILLER_35_77
*1351 FILLER_35_85
*1352 FILLER_35_89
*1353 FILLER_35_91
*1354 FILLER_35_99
*1355 FILLER_35_107
*1356 FILLER_35_115
*1357 FILLER_35_119
*1358 FILLER_35_121
*1359 FILLER_35_129
*1360 FILLER_35_137
*1361 FILLER_35_145
*1362 FILLER_35_149
*1363 FILLER_35_151
*1364 FILLER_35_159
*1365 FILLER_35_167
*1366 FILLER_35_175
*1367 FILLER_35_179
*1368 FILLER_35_181
*1369 FILLER_35_189
*1370 FILLER_35_197
*1371 FILLER_35_205
*1372 FILLER_35_209
*1373 FILLER_35_211
*1374 FILLER_35_215

*PORTS
a[0] I
a[1] I
a[2] I
a[3] I
b[0] I
b[1] I
b[2] I
b[3] I
clk I
rst_n I
sum[0] O
sum[1] O
sum[2] O
sum[3] O
sum[4] O

*D_NET *1 0.00246713
*CONN
*I *69:D I *D sky130_fd_sc_hd__dfrtp_1
*I *59:X O *D sky130_fd_sc_hd__a21o_1
*CAP
1 *69:D 0.000794456
2 *59:X 0.000794456
3 *69:D *57:A 0.000434578
4 *69:D *59:A1 0.000113244
5 *69:D *59:B1 5.28741e-05
6 *69:D *9:8 3.71249e-05
7 *69:D *10:14 0.000165521
8 *69:D *52:12 7.48797e-05
*RES
1 *59:X *69:D 39.742 
*END

*D_NET *2 0.00111742
*CONN
*I *67:D I *D sky130_fd_sc_hd__dfrtp_1
*I *54:X O *D sky130_fd_sc_hd__xor2_1
*CAP
1 *67:D 0.00052732
2 *54:X 0.00052732
3 *67:D *67:CLK 6.27782e-05
*RES
1 *54:X *67:D 29.9521 
*END

*D_NET *3 0.00126488
*CONN
*I *68:D I *D sky130_fd_sc_hd__dfrtp_1
*I *57:Y O *D sky130_fd_sc_hd__xnor2_1
*CAP
1 *68:D 0.000632439
2 *57:Y 0.000632439
*RES
1 *57:Y *68:D 41.1458 
*END

*D_NET *4 0.00169899
*CONN
*I *223:A I *D sky130_fd_sc_hd__buf_4
*I *60:CIN I *D sky130_fd_sc_hd__fa_2
*I *64:COUT O *D sky130_fd_sc_hd__ha_2
*CAP
1 *223:A 0.000239778
2 *60:CIN 3.77471e-05
3 *64:COUT 0.000346391
4 *4:10 0.000623916
5 *223:A *55:A1 4.43395e-05
6 *223:A *64:B 0
7 *4:10 *55:A1 3.61346e-05
8 *4:10 *64:B 0
9 *4:10 *65:D 0.000370684
*RES
1 *64:COUT *4:10 20.8779 
2 *4:10 *60:CIN 14.4665 
3 *4:10 *223:A 19.7687 
*END

*D_NET *5 0.00119505
*CONN
*I *54:A I *D sky130_fd_sc_hd__xor2_1
*I *58:A2 I *D sky130_fd_sc_hd__a21o_1
*I *60:COUT O *D sky130_fd_sc_hd__fa_2
*CAP
1 *54:A 0
2 *58:A2 0.000233469
3 *60:COUT 0.000228169
4 *5:10 0.000461638
5 *58:A2 *56:A1 8.79352e-05
6 *58:A2 *56:B1 8.72115e-06
7 *58:A2 *57:B 0.000171677
8 *5:10 *55:A1 0
9 *5:10 *56:A2 0
10 *5:10 *56:B1 3.44412e-06
*RES
1 *60:COUT *5:10 23.8184 
2 *5:10 *58:A2 25.4315 
3 *5:10 *54:A 9.24915 
*END

*D_NET *6 0.0013079
*CONN
*I *55:B1 I *D sky130_fd_sc_hd__a21o_1
*I *61:COUT O *D sky130_fd_sc_hd__ha_1
*CAP
1 *55:B1 0.000493596
2 *61:COUT 0.000493596
3 *55:B1 *55:A1 0.000164829
4 *55:B1 *55:A2 3.42931e-05
5 *55:B1 *60:A 3.42931e-05
6 *55:B1 *61:B 1.43983e-05
7 *55:B1 *208:A 4.4379e-05
8 *55:B1 *39:6 2.85139e-05
*RES
1 *61:COUT *55:B1 37.4564 
*END

*D_NET *7 0.000351059
*CONN
*I *55:A2 I *D sky130_fd_sc_hd__a21o_1
*I *61:SUM O *D sky130_fd_sc_hd__ha_1
*CAP
1 *55:A2 0.000149168
2 *61:SUM 0.000149168
3 *55:A2 *60:A 0
4 *55:A2 *39:6 1.84293e-05
5 *55:B1 *55:A2 3.42931e-05
*RES
1 *61:SUM *55:A2 30.4689 
*END

*D_NET *8 0.000807356
*CONN
*I *59:B1 I *D sky130_fd_sc_hd__a21o_1
*I *62:COUT O *D sky130_fd_sc_hd__ha_1
*CAP
1 *59:B1 8.0041e-05
2 *62:COUT 8.0041e-05
3 *59:B1 *9:8 0.000496179
4 *59:B1 *10:14 9.82204e-05
5 *69:D *59:B1 5.28741e-05
*RES
1 *62:COUT *59:B1 24.2372 
*END

*D_NET *9 0.00214842
*CONN
*I *57:A I *D sky130_fd_sc_hd__xnor2_1
*I *59:A2 I *D sky130_fd_sc_hd__a21o_1
*I *62:SUM O *D sky130_fd_sc_hd__ha_1
*CAP
1 *57:A 0.000109092
2 *59:A2 0
3 *62:SUM 0.000434047
4 *9:8 0.000543139
5 *9:8 *10:14 9.42583e-05
6 *59:B1 *9:8 0.000496179
7 *69:D *57:A 0.000434578
8 *69:D *9:8 3.71249e-05
*RES
1 *62:SUM *9:8 22.0533 
2 *9:8 *59:A2 9.24915 
3 *9:8 *57:A 13.8548 
*END

*D_NET *10 0.00313658
*CONN
*I *58:B1 I *D sky130_fd_sc_hd__a21o_1
*I *56:B1 I *D sky130_fd_sc_hd__a21oi_2
*I *63:COUT O *D sky130_fd_sc_hd__ha_1
*CAP
1 *58:B1 0
2 *56:B1 0.000232353
3 *63:COUT 0.000863832
4 *10:14 0.00109619
5 *56:B1 *54:B 7.36725e-05
6 *56:B1 *57:B 0.000148002
7 *56:B1 *219:A 3.54295e-05
8 *56:B1 *11:14 1.88422e-05
9 *56:B1 *11:27 2.08274e-05
10 *10:14 *59:A1 1.47882e-05
11 *10:14 *11:14 0.000262487
12 *58:A2 *56:B1 8.72115e-06
13 *59:B1 *10:14 9.82204e-05
14 *69:D *10:14 0.000165521
15 *5:10 *56:B1 3.44412e-06
16 *9:8 *10:14 9.42583e-05
*RES
1 *63:COUT *10:14 34.6991 
2 *10:14 *56:B1 25.2627 
3 *10:14 *58:B1 9.24915 
*END

*D_NET *11 0.00312718
*CONN