*SPEF "ieee 1481-1999"
*DESIGN "adder"
*DATE "13:57:43 Sunday September 14, 2025"
*VENDOR "The OpenROAD Project"
*PROGRAM "OpenROAD"
*VERSION "v2.0-24351-gb4b32b99aa"
*DESIGN_FLOW "NAME_SCOPE LOCAL" "PIN_CAP NONE"
*DIVIDER /
*DELIMITER :
*BUS_DELIMITER []
*T_UNIT 1 NS
*C_UNIT 1 PF
*R_UNIT 1 OHM
*L_UNIT 1 HENRY

*NAME_MAP
*1 _00_
*2 _01_
*3 _02_
*4 _03_
*5 _04_
*6 _05_
*7 _06_
*8 _07_
*9 _08_
*10 _09_
*11 _10_
*12 _11_
*13 _12_
*14 _13_
*15 _14_
*16 _15_
*17 a[0]
*18 a[1]
*19 a[2]
*20 a[3]
*21 b[0]
*22 b[1]
*23 b[2]
*24 b[3]
*25 clk
*26 rst_n
*27 net10
*28 net11
*29 net12
*30 net13
*31 net14
*34 net1
*35 net2
*36 net3
*37 net4
*38 net5
*39 net6
*40 net7
*41 net8
*42 net9
*43 sum[0]
*44 sum[1]
*45 sum[2]
*46 sum[3]
*47 sum[4]
*48 net15
*51 clknet_0_clk
*52 clknet_1_0__leaf_clk
*53 clknet_1_1__leaf_clk
*54 _16_
*55 _17_
*56 _18_
*57 _19_
*58 _20_
*59 _21_
*60 _22_
*61 _23_
*62 _24_
*63 _25_
*64 _26_
*65 sum\[0\]\$_DFF_PN0_
*66 sum\[1\]\$_DFF_PN0_
*67 sum\[2\]\$_DFF_PN0_
*68 sum\[3\]\$_DFF_PN0_
*69 sum\[4\]\$_DFF_PN0_
*70 TAP_TAPCELL_ROW_0_0
*71 TAP_TAPCELL_ROW_0_1
*72 TAP_TAPCELL_ROW_0_2
*73 TAP_TAPCELL_ROW_0_3
*74 TAP_TAPCELL_ROW_0_4
*75 TAP_TAPCELL_ROW_0_5
*76 TAP_TAPCELL_ROW_0_6
*77 TAP_TAPCELL_ROW_1_7
*78 TAP_TAPCELL_ROW_1_8
*79 TAP_TAPCELL_ROW_1_9
*80 TAP_TAPCELL_ROW_2_10
*81 TAP_TAPCELL_ROW_2_11
*82 TAP_TAPCELL_ROW_2_12
*83 TAP_TAPCELL_ROW_2_13
*84 TAP_TAPCELL_ROW_3_14
*85 TAP_TAPCELL_ROW_3_15
*86 TAP_TAPCELL_ROW_3_16
*87 TAP_TAPCELL_ROW_4_17
*88 TAP_TAPCELL_ROW_4_18
*89 TAP_TAPCELL_ROW_4_19
*90 TAP_TAPCELL_ROW_4_20
*91 TAP_TAPCELL_ROW_5_21
*92 TAP_TAPCELL_ROW_5_22
*93 TAP_TAPCELL_ROW_5_23
*94 TAP_TAPCELL_ROW_6_24
*95 TAP_TAPCELL_ROW_6_25
*96 TAP_TAPCELL_ROW_6_26
*97 TAP_TAPCELL_ROW_6_27
*98 TAP_TAPCELL_ROW_7_28
*99 TAP_TAPCELL_ROW_7_29
*100 TAP_TAPCELL_ROW_7_30
*101 TAP_TAPCELL_ROW_8_31
*102 TAP_TAPCELL_ROW_8_32
*103 TAP_TAPCELL_ROW_8_33
*104 TAP_TAPCELL_ROW_8_34
*105 TAP_TAPCELL_ROW_9_35
*106 TAP_TAPCELL_ROW_9_36
*107 TAP_TAPCELL_ROW_9_37
*108 TAP_TAPCELL_ROW_10_38
*109 TAP_TAPCELL_ROW_10_39
*110 TAP_TAPCELL_ROW_10_40
*111 TAP_TAPCELL_ROW_10_41
*112 TAP_TAPCELL_ROW_11_42
*113 TAP_TAPCELL_ROW_11_43
*114 TAP_TAPCELL_ROW_11_44
*115 TAP_TAPCELL_ROW_12_45
*116 TAP_TAPCELL_ROW_12_46
*117 TAP_TAPCELL_ROW_12_47
*118 TAP_TAPCELL_ROW_12_48
*119 TAP_TAPCELL_ROW_13_49
*120 TAP_TAPCELL_ROW_13_50
*121 TAP_TAPCELL_ROW_13_51
*122 TAP_TAPCELL_ROW_14_52
*123 TAP_TAPCELL_ROW_14_53
*124 TAP_TAPCELL_ROW_14_54
*125 TAP_TAPCELL_ROW_14_55
*126 TAP_TAPCELL_ROW_15_56
*127 TAP_TAPCELL_ROW_15_57
*128 TAP_TAPCELL_ROW_15_58
*129 TAP_TAPCELL_ROW_16_59
*130 TAP_TAPCELL_ROW_16_60
*131 TAP_TAPCELL_ROW_16_61
*132 TAP_TAPCELL_ROW_16_62
*133 TAP_TAPCELL_ROW_17_63
*134 TAP_TAPCELL_ROW_17_64
*135 TAP_TAPCELL_ROW_17_65
*136 TAP_TAPCELL_ROW_18_66
*137 TAP_TAPCELL_ROW_18_67
*138 TAP_TAPCELL_ROW_18_68
*139 TAP_TAPCELL_ROW_18_69
*140 TAP_TAPCELL_ROW_19_70
*141 TAP_TAPCELL_ROW_19_71
*142 TAP_TAPCELL_ROW_19_72
*143 TAP_TAPCELL_ROW_20_73
*144 TAP_TAPCELL_ROW_20_74
*145 TAP_TAPCELL_ROW_20_75
*146 TAP_TAPCELL_ROW_20_76
*147 TAP_TAPCELL_ROW_21_77
*148 TAP_TAPCELL_ROW_21_78
*149 TAP_TAPCELL_ROW_21_79
*150 TAP_TAPCELL_ROW_22_80
*151 TAP_TAPCELL_ROW_22_81
*152 TAP_TAPCELL_ROW_22_82
*153 TAP_TAPCELL_ROW_22_83
*154 TAP_TAPCELL_ROW_23_84
*155 TAP_TAPCELL_ROW_23_85
*156 TAP_TAPCELL_ROW_23_86
*157 TAP_TAPCELL_ROW_24_87
*158 TAP_TAPCELL_ROW_24_88
*159 TAP_TAPCELL_ROW_24_89
*160 TAP_TAPCELL_ROW_24_90
*161 TAP_TAPCELL_ROW_25_91
*162 TAP_TAPCELL_ROW_25_92
*163 TAP_TAPCELL_ROW_25_93
*164 TAP_TAPCELL_ROW_26_94
*165 TAP_TAPCELL_ROW_26_95
*166 TAP_TAPCELL_ROW_26_96
*167 TAP_TAPCELL_ROW_26_97
*168 TAP_TAPCELL_ROW_27_98
*169 TAP_TAPCELL_ROW_27_99
*170 TAP_TAPCELL_ROW_27_100
*171 TAP_TAPCELL_ROW_28_101
*172 TAP_TAPCELL_ROW_28_102
*173 TAP_TAPCELL_ROW_28_103
*174 TAP_TAPCELL_ROW_28_104
*175 TAP_TAPCELL_ROW_29_105
*176 TAP_TAPCELL_ROW_29_106
*177 TAP_TAPCELL_ROW_29_107
*178 TAP_TAPCELL_ROW_30_108
*179 TAP_TAPCELL_ROW_30_109
*180 TAP_TAPCELL_ROW_30_110
*181 TAP_TAPCELL_ROW_30_111
*182 TAP_TAPCELL_ROW_31_112
*183 TAP_TAPCELL_ROW_31_113
*184 TAP_TAPCELL_ROW_31_114
*185 TAP_TAPCELL_ROW_32_115
*186 TAP_TAPCELL_ROW_32_116
*187 TAP_TAPCELL_ROW_32_117
*188 TAP_TAPCELL_ROW_32_118
*189 TAP_TAPCELL_ROW_33_119
*190 TAP_TAPCELL_ROW_33_120
*191 TAP_TAPCELL_ROW_33_121
*192 TAP_TAPCELL_ROW_34_122
*193 TAP_TAPCELL_ROW_34_123
*194 TAP_TAPCELL_ROW_34_124
*195 TAP_TAPCELL_ROW_34_125
*196 TAP_TAPCELL_ROW_35_126
*197 TAP_TAPCELL_ROW_35_127
*198 TAP_TAPCELL_ROW_35_128
*199 TAP_TAPCELL_ROW_35_129
*200 TAP_TAPCELL_ROW_35_130
*201 TAP_TAPCELL_ROW_35_131
*202 TAP_TAPCELL_ROW_35_132
*203 input1
*204 input2
*205 input3
*206 input4
*207 input5
*208 input6
*209 input7
*210 input8
*211 input9
*212 output10
*213 output11
*214 output12
*215 output13
*216 output14
*217 place15
*218 FILLER_0_8
*219 FILLER_0_0
*220 clkbuf_0_clk
*221 clkbuf_1_0__f_clk
*222 clkbuf_1_1__f_clk
*223 clkload0
*224 FILLER_0_16
*225 FILLER_0_24
*226 FILLER_0_28
*227 FILLER_0_31
*228 FILLER_0_39
*229 FILLER_0_47
*230 FILLER_0_55
*231 FILLER_0_59
*232 FILLER_0_61
*233 FILLER_0_69
*234 FILLER_0_77
*235 FILLER_0_85
*236 FILLER_0_89
*237 FILLER_0_91
*238 FILLER_0_99
*239 FILLER_0_107
*240 FILLER_0_115
*241 FILLER_0_119
*242 FILLER_0_121
*243 FILLER_0_129
*244 FILLER_0_137
*245 FILLER_0_145
*246 FILLER_0_149
*247 FILLER_0_151
*248 FILLER_0_159
*249 FILLER_0_167
*250 FILLER_0_175
*251 FILLER_0_179
*252 FILLER_0_181
*253 FILLER_0_189
*254 FILLER_0_197
*255 FILLER_0_205
*256 FILLER_0_209
*257 FILLER_0_211
*258 FILLER_0_215
*259 FILLER_1_0
*260 FILLER_1_8
*261 FILLER_1_16
*262 FILLER_1_24
*263 FILLER_1_32
*264 FILLER_1_40
*265 FILLER_1_48
*266 FILLER_1_56
*267 FILLER_1_61
*268 FILLER_1_69
*269 FILLER_1_77
*270 FILLER_1_85
*271 FILLER_1_93
*272 FILLER_1_101
*273 FILLER_1_109
*274 FILLER_1_117
*275 FILLER_1_119
*276 FILLER_1_121
*277 FILLER_1_129
*278 FILLER_1_137
*279 FILLER_1_145
*280 FILLER_1_153
*281 FILLER_1_161
*282 FILLER_1_169
*283 FILLER_1_177
*284 FILLER_1_179
*285 FILLER_1_181
*286 FILLER_1_189
*287 FILLER_1_197
*288 FILLER_1_205
*289 FILLER_1_213
*290 FILLER_2_0
*291 FILLER_2_8
*292 FILLER_2_16
*293 FILLER_2_24
*294 FILLER_2_28
*295 FILLER_2_31
*296 FILLER_2_39
*297 FILLER_2_47
*298 FILLER_2_55
*299 FILLER_2_63
*300 FILLER_2_71
*301 FILLER_2_79
*302 FILLER_2_87
*303 FILLER_2_89
*304 FILLER_2_91
*305 FILLER_2_99
*306 FILLER_2_107
*307 FILLER_2_115
*308 FILLER_2_123
*309 FILLER_2_131
*310 FILLER_2_139
*311 FILLER_2_147
*312 FILLER_2_149
*313 FILLER_2_151
*314 FILLER_2_159
*315 FILLER_2_167
*316 FILLER_2_175
*317 FILLER_2_183
*318 FILLER_2_191
*319 FILLER_2_199
*320 FILLER_2_207
*321 FILLER_2_209
*322 FILLER_2_211
*323 FILLER_2_215
*324 FILLER_3_0
*325 FILLER_3_8
*326 FILLER_3_16
*327 FILLER_3_24
*328 FILLER_3_32
*329 FILLER_3_40
*330 FILLER_3_48
*331 FILLER_3_56
*332 FILLER_3_61
*333 FILLER_3_69
*334 FILLER_3_77
*335 FILLER_3_85
*336 FILLER_3_93
*337 FILLER_3_101
*338 FILLER_3_109
*339 FILLER_3_117
*340 FILLER_3_119
*341 FILLER_3_121
*342 FILLER_3_129
*343 FILLER_3_137
*344 FILLER_3_145
*345 FILLER_3_153
*346 FILLER_3_161
*347 FILLER_3_169
*348 FILLER_3_177
*349 FILLER_3_179
*350 FILLER_3_181
*351 FILLER_3_189
*352 FILLER_3_197
*353 FILLER_3_205
*354 FILLER_3_213
*355 FILLER_4_0
*356 FILLER_4_8
*357 FILLER_4_16
*358 FILLER_4_24
*359 FILLER_4_28
*360 FILLER_4_31
*361 FILLER_4_39
*362 FILLER_4_47
*363 FILLER_4_55
*364 FILLER_4_63
*365 FILLER_4_71
*366 FILLER_4_79
*367 FILLER_4_87
*368 FILLER_4_89
*369 FILLER_4_91
*370 FILLER_4_99
*371 FILLER_4_107
*372 FILLER_4_115
*373 FILLER_4_123
*374 FILLER_4_131
*375 FILLER_4_139
*376 FILLER_4_147
*377 FILLER_4_149
*378 FILLER_4_151
*379 FILLER_4_159
*380 FILLER_4_167
*381 FILLER_4_175
*382 FILLER_4_183
*383 FILLER_4_191
*384 FILLER_4_199
*385 FILLER_4_207
*386 FILLER_4_209
*387 FILLER_4_211
*388 FILLER_4_215
*389 FILLER_5_0
*390 FILLER_5_8
*391 FILLER_5_16
*392 FILLER_5_24
*393 FILLER_5_32
*394 FILLER_5_40
*395 FILLER_5_48
*396 FILLER_5_56
*397 FILLER_5_61
*398 FILLER_5_69
*399 FILLER_5_77
*400 FILLER_5_85
*401 FILLER_5_93
*402 FILLER_5_101
*403 FILLER_5_109
*404 FILLER_5_117
*405 FILLER_5_119
*406 FILLER_5_121
*407 FILLER_5_129
*408 FILLER_5_137
*409 FILLER_5_145
*410 FILLER_5_153
*411 FILLER_5_161
*412 FILLER_5_169
*413 FILLER_5_177
*414 FILLER_5_179
*415 FILLER_5_181
*416 FILLER_5_189
*417 FILLER_5_197
*418 FILLER_5_205
*419 FILLER_5_213
*420 FILLER_6_0
*421 FILLER_6_8
*422 FILLER_6_16
*423 FILLER_6_24
*424 FILLER_6_28
*425 FILLER_6_31
*426 FILLER_6_39
*427 FILLER_6_47
*428 FILLER_6_55
*429 FILLER_6_63
*430 FILLER_6_71
*431 FILLER_6_79
*432 FILLER_6_87
*433 FILLER_6_89
*434 FILLER_6_91
*435 FILLER_6_99
*436 FILLER_6_107
*437 FILLER_6_115
*438 FILLER_6_123
*439 FILLER_6_131
*440 FILLER_6_139
*441 FILLER_6_147
*442 FILLER_6_149
*443 FILLER_6_151
*444 FILLER_6_159
*445 FILLER_6_167
*446 FILLER_6_175
*447 FILLER_6_183
*448 FILLER_6_191
*449 FILLER_6_199
*450 FILLER_6_207
*451 FILLER_6_209
*452 FILLER_6_211
*453 FILLER_6_215
*454 FILLER_7_0
*455 FILLER_7_8
*456 FILLER_7_16
*457 FILLER_7_24
*458 FILLER_7_32
*459 FILLER_7_40
*460 FILLER_7_48
*461 FILLER_7_56
*462 FILLER_7_61
*463 FILLER_7_69
*464 FILLER_7_77
*465 FILLER_7_85
*466 FILLER_7_93
*467 FILLER_7_101
*468 FILLER_7_109
*469 FILLER_7_117
*470 FILLER_7_119
*471 FILLER_7_121
*472 FILLER_7_129
*473 FILLER_7_137
*474 FILLER_7_145
*475 FILLER_7_153
*476 FILLER_7_161
*477 FILLER_7_169
*478 FILLER_7_177
*479 FILLER_7_179
*480 FILLER_7_181
*481 FILLER_7_189
*482 FILLER_7_197
*483 FILLER_7_205
*484 FILLER_7_213
*485 FILLER_8_0
*486 FILLER_8_8
*487 FILLER_8_16
*488 FILLER_8_24
*489 FILLER_8_28
*490 FILLER_8_31
*491 FILLER_8_39
*492 FILLER_8_47
*493 FILLER_8_55
*494 FILLER_8_63
*495 FILLER_8_71
*496 FILLER_8_79
*497 FILLER_8_87
*498 FILLER_8_89
*499 FILLER_8_91
*500 FILLER_8_99
*501 FILLER_8_107
*502 FILLER_8_115
*503 FILLER_8_123
*504 FILLER_8_131
*505 FILLER_8_139
*506 FILLER_8_147
*507 FILLER_8_149
*508 FILLER_8_151
*509 FILLER_8_159
*510 FILLER_8_167
*511 FILLER_8_175
*512 FILLER_8_183
*513 FILLER_8_191
*514 FILLER_8_199
*515 FILLER_8_207
*516 FILLER_8_209
*517 FILLER_8_211
*518 FILLER_8_215
*519 FILLER_9_0
*520 FILLER_9_8
*521 FILLER_9_16
*522 FILLER_9_24
*523 FILLER_9_32
*524 FILLER_9_40
*525 FILLER_9_48
*526 FILLER_9_56
*527 FILLER_9_61
*528 FILLER_9_69
*529 FILLER_9_77
*530 FILLER_9_85
*531 FILLER_9_93
*532 FILLER_9_101
*533 FILLER_9_109
*534 FILLER_9_117
*535 FILLER_9_119
*536 FILLER_9_121
*537 FILLER_9_129
*538 FILLER_9_137
*539 FILLER_9_145
*540 FILLER_9_153
*541 FILLER_9_161
*542 FILLER_9_169
*543 FILLER_9_177
*544 FILLER_9_179
*545 FILLER_9_181
*546 FILLER_9_189
*547 FILLER_9_197
*548 FILLER_9_205
*549 FILLER_9_213
*550 FILLER_10_0
*551 FILLER_10_8
*552 FILLER_10_16
*553 FILLER_10_24
*554 FILLER_10_28
*555 FILLER_10_31
*556 FILLER_10_39
*557 FILLER_10_47
*558 FILLER_10_55
*559 FILLER_10_63
*560 FILLER_10_71
*561 FILLER_10_79
*562 FILLER_10_84
*563 FILLER_10_88
*564 FILLER_10_91
*565 FILLER_10_99
*566 FILLER_10_107
*567 FILLER_10_115
*568 FILLER_10_123
*569 FILLER_10_131
*570 FILLER_10_139
*571 FILLER_10_147
*572 FILLER_10_149
*573 FILLER_10_151
*574 FILLER_10_159
*575 FILLER_10_167
*576 FILLER_10_175
*577 FILLER_10_183
*578 FILLER_10_191
*579 FILLER_10_199
*580 FILLER_10_207
*581 FILLER_10_209
*582 FILLER_10_211
*583 FILLER_10_215
*584 FILLER_11_0
*585 FILLER_11_8
*586 FILLER_11_16
*587 FILLER_11_24
*588 FILLER_11_32
*589 FILLER_11_40
*590 FILLER_11_48
*591 FILLER_11_56
*592 FILLER_11_61
*593 FILLER_11_69
*594 FILLER_11_77
*595 FILLER_11_85
*596 FILLER_11_89
*597 FILLER_11_91
*598 FILLER_11_96
*599 FILLER_11_104
*600 FILLER_11_112
*601 FILLER_11_121
*602 FILLER_11_129
*603 FILLER_11_137
*604 FILLER_11_145
*605 FILLER_11_153
*606 FILLER_11_161
*607 FILLER_11_169
*608 FILLER_11_177
*609 FILLER_11_179
*610 FILLER_11_181
*611 FILLER_11_189
*612 FILLER_11_197
*613 FILLER_11_205
*614 FILLER_11_213
*615 FILLER_12_0
*616 FILLER_12_8
*617 FILLER_12_16
*618 FILLER_12_24
*619 FILLER_12_28
*620 FILLER_12_31
*621 FILLER_12_39
*622 FILLER_12_47
*623 FILLER_12_55
*624 FILLER_12_63
*625 FILLER_12_71
*626 FILLER_12_79
*627 FILLER_12_91
*628 FILLER_12_104
*629 FILLER_12_112
*630 FILLER_12_120
*631 FILLER_12_128
*632 FILLER_12_136
*633 FILLER_12_144
*634 FILLER_12_148
*635 FILLER_12_151
*636 FILLER_12_159
*637 FILLER_12_167
*638 FILLER_12_175
*639 FILLER_12_183
*640 FILLER_12_191
*641 FILLER_12_199
*642 FILLER_12_207
*643 FILLER_12_209
*644 FILLER_12_211
*645 FILLER_12_215
*646 FILLER_13_0
*647 FILLER_13_8
*648 FILLER_13_16
*649 FILLER_13_24
*650 FILLER_13_32
*651 FILLER_13_40
*652 FILLER_13_48
*653 FILLER_13_56
*654 FILLER_13_61
*655 FILLER_13_69
*656 FILLER_13_77
*657 FILLER_13_85
*658 FILLER_13_93
*659 FILLER_13_101
*660 FILLER_13_105
*661 FILLER_13_121
*662 FILLER_13_129
*663 FILLER_13_137
*664 FILLER_13_145
*665 FILLER_13_153
*666 FILLER_13_161
*667 FILLER_13_169
*668 FILLER_13_177
*669 FILLER_13_179
*670 FILLER_13_181
*671 FILLER_13_189
*672 FILLER_13_197
*673 FILLER_13_205
*674 FILLER_13_213
*675 FILLER_14_0
*676 FILLER_14_8
*677 FILLER_14_16
*678 FILLER_14_24
*679 FILLER_14_28
*680 FILLER_14_31
*681 FILLER_14_39
*682 FILLER_14_47
*683 FILLER_14_55
*684 FILLER_14_63
*685 FILLER_14_71
*686 FILLER_14_79
*687 FILLER_14_87
*688 FILLER_14_89
*689 FILLER_14_111
*690 FILLER_14_113
*691 FILLER_14_123
*692 FILLER_14_131
*693 FILLER_14_139
*694 FILLER_14_147
*695 FILLER_14_149
*696 FILLER_14_151
*697 FILLER_14_159
*698 FILLER_14_167
*699 FILLER_14_175
*700 FILLER_14_183
*701 FILLER_14_191
*702 FILLER_14_199
*703 FILLER_14_207
*704 FILLER_14_209
*705 FILLER_14_211
*706 FILLER_14_215
*707 FILLER_15_0
*708 FILLER_15_8
*709 FILLER_15_16
*710 FILLER_15_24
*711 FILLER_15_32
*712 FILLER_15_40
*713 FILLER_15_48
*714 FILLER_15_56
*715 FILLER_15_61
*716 FILLER_15_69
*717 FILLER_15_113
*718 FILLER_15_117
*719 FILLER_15_119
*720 FILLER_15_121
*721 FILLER_15_129
*722 FILLER_15_137
*723 FILLER_15_145
*724 FILLER_15_153
*725 FILLER_15_161
*726 FILLER_15_169
*727 FILLER_15_177
*728 FILLER_15_179
*729 FILLER_15_181
*730 FILLER_15_189
*731 FILLER_15_197
*732 FILLER_15_205
*733 FILLER_15_213
*734 FILLER_16_0
*735 FILLER_16_8
*736 FILLER_16_12
*737 FILLER_16_23
*738 FILLER_16_27
*739 FILLER_16_29
*740 FILLER_16_31
*741 FILLER_16_39
*742 FILLER_16_49
*743 FILLER_16_57
*744 FILLER_16_85
*745 FILLER_16_89
*746 FILLER_16_91
*747 FILLER_16_99
*748 FILLER_16_107
*749 FILLER_16_115
*750 FILLER_16_123
*751 FILLER_16_131
*752 FILLER_16_139
*753 FILLER_16_147
*754 FILLER_16_149
*755 FILLER_16_151
*756 FILLER_16_159
*757 FILLER_16_167
*758 FILLER_16_175
*759 FILLER_16_183
*760 FILLER_16_191
*761 FILLER_16_199
*762 FILLER_16_207
*763 FILLER_16_209
*764 FILLER_16_211
*765 FILLER_16_215
*766 FILLER_17_0
*767 FILLER_17_8
*768 FILLER_17_16
*769 FILLER_17_24
*770 FILLER_17_32
*771 FILLER_17_40
*772 FILLER_17_48
*773 FILLER_17_56
*774 FILLER_17_61
*775 FILLER_17_69
*776 FILLER_17_77
*777 FILLER_17_108
*778 FILLER_17_116
*779 FILLER_17_121
*780 FILLER_17_129
*781 FILLER_17_137
*782 FILLER_17_145
*783 FILLER_17_153
*784 FILLER_17_161
*785 FILLER_17_169
*786 FILLER_17_177
*787 FILLER_17_179
*788 FILLER_17_181
*789 FILLER_17_189
*790 FILLER_17_197
*791 FILLER_17_205
*792 FILLER_17_213
*793 FILLER_18_0
*794 FILLER_18_8
*795 FILLER_18_16
*796 FILLER_18_24
*797 FILLER_18_28
*798 FILLER_18_31
*799 FILLER_18_39
*800 FILLER_18_47
*801 FILLER_18_55
*802 FILLER_18_63
*803 FILLER_18_67
*804 FILLER_18_88
*805 FILLER_18_111
*806 FILLER_18_119
*807 FILLER_18_127
*808 FILLER_18_135
*809 FILLER_18_143
*810 FILLER_18_147
*811 FILLER_18_149
*812 FILLER_18_151
*813 FILLER_18_159
*814 FILLER_18_167
*815 FILLER_18_175
*816 FILLER_18_183
*817 FILLER_18_191
*818 FILLER_18_199
*819 FILLER_18_207
*820 FILLER_18_209
*821 FILLER_18_211
*822 FILLER_18_215
*823 FILLER_19_0
*824 FILLER_19_8
*825 FILLER_19_16
*826 FILLER_19_20
*827 FILLER_19_22
*828 FILLER_19_30
*829 FILLER_19_38
*830 FILLER_19_46
*831 FILLER_19_54
*832 FILLER_19_58
*833 FILLER_19_61
*834 FILLER_19_89
*835 FILLER_19_111
*836 FILLER_19_119
*837 FILLER_19_121
*838 FILLER_19_129
*839 FILLER_19_131
*840 FILLER_19_141
*841 FILLER_19_149
*842 FILLER_19_157
*843 FILLER_19_165
*844 FILLER_19_173
*845 FILLER_19_177
*846 FILLER_19_179
*847 FILLER_19_181
*848 FILLER_19_189
*849 FILLER_19_197
*850 FILLER_19_205
*851 FILLER_19_213
*852 FILLER_20_0
*853 FILLER_20_8
*854 FILLER_20_16
*855 FILLER_20_24
*856 FILLER_20_28
*857 FILLER_20_31
*858 FILLER_20_39
*859 FILLER_20_43
*860 FILLER_20_55
*861 FILLER_20_77
*862 FILLER_20_84
*863 FILLER_20_88
*864 FILLER_20_111
*865 FILLER_20_115
*866 FILLER_20_117
*867 FILLER_20_127
*868 FILLER_20_135
*869 FILLER_20_143
*870 FILLER_20_147
*871 FILLER_20_149
*872 FILLER_20_151
*873 FILLER_20_159
*874 FILLER_20_167
*875 FILLER_20_175
*876 FILLER_20_183
*877 FILLER_20_191
*878 FILLER_20_199
*879 FILLER_20_207
*880 FILLER_20_209
*881 FILLER_20_211
*882 FILLER_20_215
*883 FILLER_21_0
*884 FILLER_21_8
*885 FILLER_21_16
*886 FILLER_21_24
*887 FILLER_21_33
*888 FILLER_21_41
*889 FILLER_21_49
*890 FILLER_21_57
*891 FILLER_21_59
*892 FILLER_21_61
*893 FILLER_21_69
*894 FILLER_21_71
*895 FILLER_21_78
*896 FILLER_21_86
*897 FILLER_21_94
*898 FILLER_21_102
*899 FILLER_21_110
*900 FILLER_21_118
*901 FILLER_21_121
*902 FILLER_21_129
*903 FILLER_21_137
*904 FILLER_21_145
*905 FILLER_21_153
*906 FILLER_21_161
*907 FILLER_21_169
*908 FILLER_21_177
*909 FILLER_21_179
*910 FILLER_21_181
*911 FILLER_21_189
*912 FILLER_21_197
*913 FILLER_21_205
*914 FILLER_21_213
*915 FILLER_22_0
*916 FILLER_22_8
*917 FILLER_22_16
*918 FILLER_22_24
*919 FILLER_22_28
*920 FILLER_22_31
*921 FILLER_22_39
*922 FILLER_22_47
*923 FILLER_22_55
*924 FILLER_22_63
*925 FILLER_22_71
*926 FILLER_22_79
*927 FILLER_22_87
*928 FILLER_22_89
*929 FILLER_22_102
*930 FILLER_22_110
*931 FILLER_22_112
*932 FILLER_22_122
*933 FILLER_22_130
*934 FILLER_22_138
*935 FILLER_22_146
*936 FILLER_22_151
*937 FILLER_22_159
*938 FILLER_22_167
*939 FILLER_22_175
*940 FILLER_22_183
*941 FILLER_22_191
*942 FILLER_22_199
*943 FILLER_22_207
*944 FILLER_22_209
*945 FILLER_22_211
*946 FILLER_22_215
*947 FILLER_23_0
*948 FILLER_23_8
*949 FILLER_23_16
*950 FILLER_23_24
*951 FILLER_23_32
*952 FILLER_23_40
*953 FILLER_23_48
*954 FILLER_23_56
*955 FILLER_23_61
*956 FILLER_23_69
*957 FILLER_23_77
*958 FILLER_23_85
*959 FILLER_23_93
*960 FILLER_23_101
*961 FILLER_23_109
*962 FILLER_23_117
*963 FILLER_23_119
*964 FILLER_23_121
*965 FILLER_23_129
*966 FILLER_23_137
*967 FILLER_23_145
*968 FILLER_23_153
*969 FILLER_23_161
*970 FILLER_23_169
*971 FILLER_23_177
*972 FILLER_23_179
*973 FILLER_23_181
*974 FILLER_23_189
*975 FILLER_23_197
*976 FILLER_23_205
*977 FILLER_23_213
*978 FILLER_24_0
*979 FILLER_24_8
*980 FILLER_24_16
*981 FILLER_24_24
*982 FILLER_24_28
*983 FILLER_24_31
*984 FILLER_24_39
*985 FILLER_24_47
*986 FILLER_24_55
*987 FILLER_24_63
*988 FILLER_24_71
*989 FILLER_24_79
*990 FILLER_24_87
*991 FILLER_24_89
*992 FILLER_24_91
*993 FILLER_24_99
*994 FILLER_24_107
*995 FILLER_24_115
*996 FILLER_24_123
*997 FILLER_24_131
*998 FILLER_24_139
*999 FILLER_24_147
*1000 FILLER_24_149
*1001 FILLER_24_151
*1002 FILLER_24_159
*1003 FILLER_24_167
*1004 FILLER_24_175
*1005 FILLER_24_183
*1006 FILLER_24_191
*1007 FILLER_24_199
*1008 FILLER_24_207
*1009 FILLER_24_209
*1010 FILLER_24_211
*1011 FILLER_24_215
*1012 FILLER_25_0
*1013 FILLER_25_8
*1014 FILLER_25_16
*1015 FILLER_25_24
*1016 FILLER_25_32
*1017 FILLER_25_40
*1018 FILLER_25_48
*1019 FILLER_25_56
*1020 FILLER_25_61
*1021 FILLER_25_69
*1022 FILLER_25_77
*1023 FILLER_25_85
*1024 FILLER_25_93
*1025 FILLER_25_101
*1026 FILLER_25_109
*1027 FILLER_25_117
*1028 FILLER_25_119
*1029 FILLER_25_121
*1030 FILLER_25_129
*1031 FILLER_25_137
*1032 FILLER_25_145
*1033 FILLER_25_153
*1034 FILLER_25_161
*1035 FILLER_25_169
*1036 FILLER_25_177
*1037 FILLER_25_179
*1038 FILLER_25_181
*1039 FILLER_25_189
*1040 FILLER_25_197
*1041 FILLER_25_205
*1042 FILLER_25_213
*1043 FILLER_26_0
*1044 FILLER_26_8
*1045 FILLER_26_16
*1046 FILLER_26_24
*1047 FILLER_26_28
*1048 FILLER_26_31
*1049 FILLER_26_39
*1050 FILLER_26_47
*1051 FILLER_26_55
*1052 FILLER_26_63
*1053 FILLER_26_71
*1054 FILLER_26_79
*1055 FILLER_26_87
*1056 FILLER_26_89
*1057 FILLER_26_91
*1058 FILLER_26_99
*1059 FILLER_26_107
*1060 FILLER_26_115
*1061 FILLER_26_123
*1062 FILLER_26_131
*1063 FILLER_26_139
*1064 FILLER_26_147
*1065 FILLER_26_149
*1066 FILLER_26_151
*1067 FILLER_26_159
*1068 FILLER_26_167
*1069 FILLER_26_175
*1070 FILLER_26_183
*1071 FILLER_26_191
*1072 FILLER_26_199
*1073 FILLER_26_207
*1074 FILLER_26_209
*1075 FILLER_26_211
*1076 FILLER_26_215
*1077 FILLER_27_0
*1078 FILLER_27_8
*1079 FILLER_27_16
*1080 FILLER_27_24
*1081 FILLER_27_32
*1082 FILLER_27_40
*1083 FILLER_27_48
*1084 FILLER_27_56
*1085 FILLER_27_61
*1086 FILLER_27_69
*1087 FILLER_27_77
*1088 FILLER_27_85
*1089 FILLER_27_93
*1090 FILLER_27_101
*1091 FILLER_27_109
*1092 FILLER_27_117
*1093 FILLER_27_119
*1094 FILLER_27_121
*1095 FILLER_27_129
*1096 FILLER_27_137
*1097 FILLER_27_145
*1098 FILLER_27_153
*1099 FILLER_27_161
*1100 FILLER_27_169
*1101 FILLER_27_177
*1102 FILLER_27_179
*1103 FILLER_27_181
*1104 FILLER_27_189
*1105 FILLER_27_197
*1106 FILLER_27_205
*1107 FILLER_27_213
*1108 FILLER_28_0
*1109 FILLER_28_8
*1110 FILLER_28_16
*1111 FILLER_28_24
*1112 FILLER_28_28
*1113 FILLER_28_31
*1114 FILLER_28_39
*1115 FILLER_28_47
*1116 FILLER_28_55
*1117 FILLER_28_63
*1118 FILLER_28_71
*1119 FILLER_28_79
*1120 FILLER_28_87
*1121 FILLER_28_89
*1122 FILLER_28_91
*1123 FILLER_28_99
*1124 FILLER_28_107
*1125 FILLER_28_115
*1126 FILLER_28_123
*1127 FILLER_28_131
*1128 FILLER_28_139
*1129 FILLER_28_147
*1130 FILLER_28_149
*1131 FILLER_28_151
*1132 FILLER_28_159
*1133 FILLER_28_167
*1134 FILLER_28_175
*1135 FILLER_28_183
*1136 FILLER_28_191
*1137 FILLER_28_199
*1138 FILLER_28_207
*1139 FILLER_28_209
*1140 FILLER_28_211
*1141 FILLER_28_215
*1142 FILLER_29_0
*1143 FILLER_29_8
*1144 FILLER_29_16
*1145 FILLER_29_24
*1146 FILLER_29_32
*1147 FILLER_29_40
*1148 FILLER_29_48
*1149 FILLER_29_56
*1150 FILLER_29_61
*1151 FILLER_29_69
*1152 FILLER_29_77
*1153 FILLER_29_85
*1154 FILLER_29_93
*1155 FILLER_29_101
*1156 FILLER_29_109
*1157 FILLER_29_117
*1158 FILLER_29_119
*1159 FILLER_29_121
*1160 FILLER_29_129
*1161 FILLER_29_137
*1162 FILLER_29_145
*1163 FILLER_29_153
*1164 FILLER_29_161
*1165 FILLER_29_169
*1166 FILLER_29_177
*1167 FILLER_29_179
*1168 FILLER_29_181
*1169 FILLER_29_189
*1170 FILLER_29_197
*1171 FILLER_29_205
*1172 FILLER_29_213
*1173 FILLER_30_0
*1174 FILLER_30_8
*1175 FILLER_30_16
*1176 FILLER_30_24
*1177 FILLER_30_28
*1178 FILLER_30_31
*1179 FILLER_30_39
*1180 FILLER_30_47
*1181 FILLER_30_55
*1182 FILLER_30_63
*1183 FILLER_30_71
*1184 FILLER_30_79
*1185 FILLER_30_87
*1186 FILLER_30_89
*1187 FILLER_30_91
*1188 FILLER_30_99
*1189 FILLER_30_107
*1190 FILLER_30_115
*1191 FILLER_30_123
*1192 FILLER_30_131
*1193 FILLER_30_139
*1194 FILLER_30_147
*1195 FILLER_30_149
*1196 FILLER_30_151
*1197 FILLER_30_159
*1198 FILLER_30_167
*1199 FILLER_30_175
*1200 FILLER_30_183
*1201 FILLER_30_191
*1202 FILLER_30_199
*1203 FILLER_30_207
*1204 FILLER_30_209
*1205 FILLER_30_211
*1206 FILLER_30_215
*1207 FILLER_31_0
*1208 FILLER_31_8
*1209 FILLER_31_16
*1210 FILLER_31_24
*1211 FILLER_31_32
*1212 FILLER_31_40
*1213 FILLER_31_48
*1214 FILLER_31_56
*1215 FILLER_31_61
*1216 FILLER_31_69
*1217 FILLER_31_77
*1218 FILLER_31_85
*1219 FILLER_31_93
*1220 FILLER_31_101
*1221 FILLER_31_109
*1222 FILLER_31_117
*1223 FILLER_31_119
*1224 FILLER_31_121
*1225 FILLER_31_129
*1226 FILLER_31_137
*1227 FILLER_31_145
*1228 FILLER_31_153
*1229 FILLER_31_161
*1230 FILLER_31_169
*1231 FILLER_31_177
*1232 FILLER_31_179
*1233 FILLER_31_181
*1234 FILLER_31_189
*1235 FILLER_31_197
*1236 FILLER_31_205
*1237 FILLER_31_213
*1238 FILLER_32_0
*1239 FILLER_32_8
*1240 FILLER_32_16
*1241 FILLER_32_24
*1242 FILLER_32_28
*1243 FILLER_32_31
*1244 FILLER_32_39
*1245 FILLER_32_47
*1246 FILLER_32_55
*1247 FILLER_32_63
*1248 FILLER_32_71
*1249 FILLER_32_79
*1250 FILLER_32_87
*1251 FILLER_32_89
*1252 FILLER_32_91
*1253 FILLER_32_99
*1254 FILLER_32_107
*1255 FILLER_32_115
*1256 FILLER_32_123
*1257 FILLER_32_131
*1258 FILLER_32_139
*1259 FILLER_32_147
*1260 FILLER_32_149
*1261 FILLER_32_151
*1262 FILLER_32_159
*1263 FILLER_32_167
*1264 FILLER_32_175
*1265 FILLER_32_183
*1266 FILLER_32_191
*1267 FILLER_32_199
*1268 FILLER_32_207
*1269 FILLER_32_209
*1270 FILLER_32_211
*1271 FILLER_32_215
*1272 FILLER_33_0
*1273 FILLER_33_8
*1274 FILLER_33_16
*1275 FILLER_33_24
*1276 FILLER_33_32
*1277 FILLER_33_40
*1278 FILLER_33_48
*1279 FILLER_33_56
*1280 FILLER_33_61
*1281 FILLER_33_69
*1282 FILLER_33_77
*1283 FILLER_33_85
*1284 FILLER_33_93
*1285 FILLER_33_101
*1286 FILLER_33_109
*1287 FILLER_33_117
*1288 FILLER_33_119
*1289 FILLER_33_121
*1290 FILLER_33_129
*1291 FILLER_33_137
*1292 FILLER_33_145
*1293 FILLER_33_153
*1294 FILLER_33_161
*1295 FILLER_33_169
*1296 FILLER_33_177
*1297 FILLER_33_179
*1298 FILLER_33_181
*1299 FILLER_33_189
*1300 FILLER_33_197
*1301 FILLER_33_205
*1302 FILLER_33_213
*1303 FILLER_34_0
*1304 FILLER_34_8
*1305 FILLER_34_16
*1306 FILLER_34_24
*1307 FILLER_34_28
*1308 FILLER_34_31
*1309 FILLER_34_39
*1310 FILLER_34_47
*1311 FILLER_34_55
*1312 FILLER_34_63
*1313 FILLER_34_71
*1314 FILLER_34_79
*1315 FILLER_34_87
*1316 FILLER_34_89
*1317 FILLER_34_91
*1318 FILLER_34_99
*1319 FILLER_34_107
*1320 FILLER_34_115
*1321 FILLER_34_123
*1322 FILLER_34_131
*1323 FILLER_34_139
*1324 FILLER_34_147
*1325 FILLER_34_149
*1326 FILLER_34_151
*1327 FILLER_34_159
*1328 FILLER_34_167
*1329 FILLER_34_175
*1330 FILLER_34_183
*1331 FILLER_34_191
*1332 FILLER_34_199
*1333 FILLER_34_207
*1334 FILLER_34_209
*1335 FILLER_34_211
*1336 FILLER_34_215
*1337 FILLER_35_0
*1338 FILLER_35_8
*1339 FILLER_35_16
*1340 FILLER_35_24
*1341 FILLER_35_28
*1342 FILLER_35_31
*1343 FILLER_35_39
*1344 FILLER_35_47
*1345 FILLER_35_55
*1346 FILLER_35_59
*1347 FILLER_35_61
*1348 FILLER_35_69
*1349 FILLER_35_77
*1350 FILLER_35_85
*1351 FILLER_35_89
*1352 FILLER_35_91
*1353 FILLER_35_99
*1354 FILLER_35_107
*1355 FILLER_35_115
*1356 FILLER_35_119
*1357 FILLER_35_121
*1358 FILLER_35_129
*1359 FILLER_35_137
*1360 FILLER_35_145
*1361 FILLER_35_149
*1362 FILLER_35_151
*1363 FILLER_35_159
*1364 FILLER_35_167
*1365 FILLER_35_175
*1366 FILLER_35_179
*1367 FILLER_35_181
*1368 FILLER_35_189
*1369 FILLER_35_197
*1370 FILLER_35_205
*1371 FILLER_35_209
*1372 FILLER_35_211
*1373 FILLER_35_215

*PORTS
a[0] I
a[1] I
a[2] I
a[3] I
b[0] I
b[1] I
b[2] I
b[3] I
clk I
rst_n I
sum[0] O
sum[1] O
sum[2] O
sum[3] O
sum[4] O

*D_NET *1 0.00197808
*CONN
*I *69:D I *D sky130_fd_sc_hd__dfrtp_1
*I *59:X O *D sky130_fd_sc_hd__a21o_1
*CAP
1 *69:D 0.000922819
2 *59:X 0.000922819
3 *69:D *59:A2 1.43698e-05
4 *69:D *222:A 6.96846e-05
5 *69:D *53:12 4.83834e-05
*RES
1 *59:X *69:D 41.3394 
*END

*D_NET *2 0.000312121
*CONN
*I *67:D I *D sky130_fd_sc_hd__dfrtp_1
*I *54:X O *D sky130_fd_sc_hd__xor2_1
*CAP
1 *67:D 0.00015606
2 *54:X 0.00015606
*RES
1 *54:X *67:D 21.9947 
*END

*D_NET *3 0.00109687
*CONN
*I *68:D I *D sky130_fd_sc_hd__dfrtp_1
*I *57:Y O *D sky130_fd_sc_hd__xnor2_1
*CAP
1 *68:D 0.000515567
2 *57:Y 0.000515567
3 *68:D *58:A2 2.41483e-05
4 *68:D *5:14 3.14978e-05
5 *68:D *11:25 1.00937e-05
*RES
1 *57:Y *68:D 26.4556 
*END

*D_NET *4 0.00119731
*CONN
*I *55:A2 I *D sky130_fd_sc_hd__a21o_1
*I *60:CIN I *D sky130_fd_sc_hd__fa_2
*I *64:COUT O *D sky130_fd_sc_hd__ha_4
*CAP
1 *55:A2 0
2 *60:CIN 0.000302344
3 *64:COUT 0.000139598
4 *4:8 0.000441941
5 *60:CIN *56:A1 0
6 *60:CIN *60:A 0.00017419
7 *4:8 *55:B1 8.28112e-05
8 *4:8 *15:14 5.64241e-05
*RES
1 *64:COUT *4:8 13.8789 
2 *4:8 *60:CIN 25.3839 
3 *4:8 *55:A2 9.24915 
*END

*D_NET *5 0.00132225
*CONN
*I *58:A2 I *D sky130_fd_sc_hd__a21o_1
*I *217:A I *D sky130_fd_sc_hd__buf_4
*I *60:COUT O *D sky130_fd_sc_hd__fa_2
*CAP
1 *58:A2 0.000220407
2 *217:A 0
3 *60:COUT 0.000161571
4 *5:14 0.000381978
5 *58:A2 *54:B 1.1246e-05
6 *58:A2 *57:B 0
7 *58:A2 *58:A1 0.000108748
8 *58:A2 *58:B1 3.62414e-05
9 *58:A2 *11:25 0.000198148
10 *5:14 *56:A1 9.75356e-05
11 *5:14 *11:25 5.07314e-05
12 *68:D *58:A2 2.41483e-05
13 *68:D *5:14 3.14978e-05
*RES
1 *60:COUT *5:14 22.913 
2 *5:14 *217:A 9.24915 
3 *5:14 *58:A2 25.7876 
*END

*D_NET *6 0.000912525
*CONN
*I *55:B1 I *D sky130_fd_sc_hd__a21o_1
*I *61:COUT O *D sky130_fd_sc_hd__ha_4
*CAP
1 *55:B1 0.000336679
2 *61:COUT 0.000336679
3 *55:B1 *60:A 0
4 *55:B1 *60:B 9.35846e-05
5 *55:B1 *15:14 6.27718e-05
6 *4:8 *55:B1 8.28112e-05
*RES
1 *61:COUT *55:B1 35.6238 
*END

*D_NET *7 0.000689238
*CONN
*I *55:A1 I *D sky130_fd_sc_hd__a21o_1
*I *61:SUM O *D sky130_fd_sc_hd__ha_4
*CAP
1 *55:A1 0.0002585
2 *61:SUM 0.0002585
3 *55:A1 *60:A 3.89804e-05
4 *55:A1 *15:14 0.0001195
5 *55:A1 *39:10 1.37566e-05
*RES
1 *61:SUM *55:A1 34.3512 
*END

*D_NET *8 0.000356308
*CONN
*I *59:B1 I *D sky130_fd_sc_hd__a21o_1
*I *62:COUT O *D sky130_fd_sc_hd__ha_4
*CAP
1 *59:B1 0.000140635
2 *62:COUT 0.000140635
3 *59:B1 *59:A1 6.13774e-05
4 *59:B1 *9:8 1.36606e-05
*RES
1 *62:COUT *59:B1 30.8842 
*END

*D_NET *9 0.00250383
*CONN
*I *59:A2 I *D sky130_fd_sc_hd__a21o_1
*I *57:B I *D sky130_fd_sc_hd__xnor2_1
*I *62:SUM O *D sky130_fd_sc_hd__ha_4
*CAP
1 *59:A2 0.000191375
2 *57:B 0.000245053
3 *62:SUM 0.000413069
4 *9:8 0.000849496
5 *57:B *56:B1 2.61807e-05
6 *57:B *58:B1 4.04935e-05
7 *59:A2 *58:B1 1.37566e-05
8 *59:A2 *59:A1 6.13774e-05
9 *9:8 *59:A1 1.99054e-05
10 *9:8 *62:B 0.000615088
11 *58:A2 *57:B 0
12 *59:B1 *9:8 1.36606e-05
13 *69:D *59:A2 1.43698e-05
*RES
1 *62:SUM *9:8 25.01 
2 *9:8 *57:B 19.7337 
3 *9:8 *59:A2 18.7961 
*END

*D_NET *10 0.000988843
*CONN
*I *58:B1 I *D sky130_fd_sc_hd__a21o_1
*I *56:B1 I *D sky130_fd_sc_hd__a21oi_2
*I *63:COUT O *D sky130_fd_sc_hd__ha_4
*CAP
1 *58:B1 6.76244e-05
2 *56:B1 0.000318976
3 *63:COUT 0.000386601
4 *56:B1 *57:A 3.14978e-05
5 *56:B1 *63:B 2.41274e-06
6 *56:B1 *11:25 6.50586e-05
7 *57:B *56:B1 2.61807e-05
8 *57:B *58:B1 4.04935e-05
9 *58:A2 *58:B1 3.62414e-05
10 *59:A2 *58:B1 1.37566e-05
*RES
1 *63:COUT *56:B1 33.4107 
2 *63:COUT *58:B1 29.7455 
*END

*D_NET *11 0.00232544
*CONN
*I *58:A1 I *D sky130_fd_sc_hd__a21o_1
*I *54:A I *D sky130_fd_sc_hd__xor2_1
*I *56:A2 I *D sky130_fd_sc_hd__a21oi_2
*I *63:SUM O *D sky130_fd_sc_hd__ha_4
*CAP